Circuit: * C:\Users\shaun\OneDrive\Documents\LTspiceXVII\FULL_ADDER USING CMOS\RIPPLE_CARRY_ADDER_50n.asc

WARNING: Node N065 is floating.
WARNING: Node N064 is floating.
WARNING: Node N042 is floating.
WARNING: Node N054 is floating.
WARNING: Node N041 is floating.
WARNING: Node N040 is floating.
WARNING: Node N039 is floating.
WARNING: Node N063 is floating.
WARNING: Node N061 is floating.
WARNING: Node N032 is floating.
WARNING: Node N051 is floating.
WARNING: Node N031 is floating.
WARNING: Node N030 is floating.
WARNING: Node N029 is floating.
WARNING: Node N062 is floating.
WARNING: Node N059 is floating.
WARNING: Node N028 is floating.
WARNING: Node N048 is floating.
WARNING: Node N027 is floating.
WARNING: Node N026 is floating.
WARNING: Node N025 is floating.
WARNING: Node N060 is floating.
WARNING: Node N057 is floating.
WARNING: Node N023 is floating.
WARNING: Node N046 is floating.
WARNING: Node N022 is floating.
WARNING: Node N021 is floating.
WARNING: Node N020 is floating.

WARNING: Less than two connections to node N065.  This node is used by M1.
WARNING: Less than two connections to node N064.  This node is used by M2.
WARNING: Less than two connections to node N042.  This node is used by M3.
WARNING: Less than two connections to node N054.  This node is used by M10.
WARNING: Less than two connections to node N041.  This node is used by M11.
WARNING: Less than two connections to node N040.  This node is used by M12.
WARNING: Less than two connections to node N039.  This node is used by M15.
WARNING: Less than two connections to node N063.  This node is used by M29.
WARNING: Less than two connections to node N061.  This node is used by M30.
WARNING: Less than two connections to node N032.  This node is used by M31.
WARNING: Less than two connections to node N051.  This node is used by M38.
WARNING: Less than two connections to node N031.  This node is used by M39.
WARNING: Less than two connections to node N030.  This node is used by M40.
WARNING: Less than two connections to node N029.  This node is used by M43.
WARNING: Less than two connections to node N062.  This node is used by M57.
WARNING: Less than two connections to node N059.  This node is used by M58.
WARNING: Less than two connections to node N028.  This node is used by M59.
WARNING: Less than two connections to node N048.  This node is used by M66.
WARNING: Less than two connections to node N027.  This node is used by M67.
WARNING: Less than two connections to node N026.  This node is used by M68.
WARNING: Less than two connections to node N025.  This node is used by M71.
WARNING: Less than two connections to node N060.  This node is used by M85.
WARNING: Less than two connections to node N057.  This node is used by M86.
WARNING: Less than two connections to node N023.  This node is used by M87.
WARNING: Less than two connections to node N046.  This node is used by M94.
WARNING: Less than two connections to node N022.  This node is used by M95.
WARNING: Less than two connections to node N021.  This node is used by M96.
WARNING: Less than two connections to node N020.  This node is used by M99.
Direct Newton iteration failed to find .op point.  (Use ".option noopiter" to skip.)
Starting Gmin stepping
Gmin = 10
Gmin = 1.07374
Gmin = 0.115292
Gmin = 0.0123794
Gmin = 0.00132923
Gmin = 0.000142725
Gmin = 1.5325e-005
Gmin = 1.6455e-006
Gmin = 1.76685e-007
Gmin = 1.89714e-008
Gmin = 2.03704e-009
Gmin = 2.18725e-010
Gmin = 2.34854e-011
Gmin = 2.52173e-012
Gmin = 2.70769e-013
Gmin = 0
Gmin stepping succeeded in finding the operating point.


Date: Mon Jul 22 16:53:39 2024
Total elapsed time: 1.347 seconds.

tnom = 27
temp = 27
method = modified trap
totiter = 11322
traniter = 10817
tranpoints = 3471
accept = 2729
rejected = 742
matrix size = 550
fillins = 58
solver = Normal
Thread vector: 78.4/20.0[11] 24.5/10.2[11] 9.6/3.9[11] 2.3/5.1[1]  2592/500
Matrix Compiler1: 80.94 KB object code size  34.6/16.4/[8.9]
Matrix Compiler2: 70.80 KB object code size  9.0/8.3/[2.4]

